************************************************************************
****  diode_ideal (approximates ideal diode)               	  ****
************************************************************************
.subckt diode_ideal 1 2
D12 1 2 diode_ideal 
.model diode_ideal D (N=0.001)
.ends diode_ideal
************************************************************************